Circuit: * D:\two-ticks\pid-fuzzy-logic-using-opamp\fuzzy-logic\maximum-function\max.asc

WARNING: Less than two connections to node -VCC.  This node is used by V4.
Direct Newton iteration failed to find .op point.  (Use ".option noopiter" to skip.)
Starting Gmin stepping
Increasing initial diagonal Gmin to 100
Increasing initial diagonal Gmin to 1000
Gmin = 1000
Gmin = 107.374
Gmin = 11.5292
Gmin = 1.23794
Gmin = 0.132923
Gmin = 0.0142725
Gmin = 0.0015325
Gmin = 0.00016455
Gmin = 1.76685e-005
Gmin = 1.89714e-006
Gmin = 2.03704e-007
Gmin = 2.18725e-008
Gmin = 2.34854e-009
Gmin = 2.52173e-010
Gmin = 2.70769e-011
Gmin = 2.90735e-012
Gmin = 3.12175e-013
Gmin = 0
Gmin stepping succeeded in finding the operating point.


Date: Sun Oct 10 16:28:30 2021
Total elapsed time: 0.201 seconds.

tnom = 27
temp = 27
method = modified trap
totiter = 3372
traniter = 2729
tranpoints = 1089
accept = 1059
rejected = 30
matrix size = 31
fillins = 47
solver = Normal
Matrix Compiler1: 3.49 KB object code size  0.7/0.4/[0.2]
Matrix Compiler2: 3.14 KB object code size  0.5/0.7/[0.3]

