Circuit: * D:\two-ticks\pid-fuzzy-logic-using-opamp\fuzzy-logic\maximum-function\max.asc

WARNING: Less than two connections to node -VCC.  This node is used by V4.
Direct Newton iteration for .op point succeeded.

Date: Fri Feb 25 17:01:54 2022
Total elapsed time: 0.289 seconds.

tnom = 27
temp = 27
method = modified trap
totiter = 2745
traniter = 2729
tranpoints = 1089
accept = 1059
rejected = 30
matrix size = 14
fillins = 1
solver = Normal
Matrix Compiler1: 474 bytes object code size  0.1/0.1/[0.1]
Matrix Compiler2: off  [0.1]/0.1/0.1

