Circuit: * D:\two-ticks\JKOSC\PID-fuzzy-logic-using-opamp\fuzzy-logic\min.asc

Direct Newton iteration for .op point succeeded.

Date: Sat Oct 09 22:27:00 2021
Total elapsed time: 0.148 seconds.

tnom = 27
temp = 27
method = modified trap
totiter = 5152
traniter = 5140
tranpoints = 2386
accept = 1883
rejected = 503
matrix size = 33
fillins = 18
solver = Normal
Matrix Compiler1: 1.76 KB object code size  0.5/0.3/[0.1]
Matrix Compiler2: 2.91 KB object code size  0.4/0.5/[0.2]

