Circuit: * D:\two-ticks\pid-fuzzy-logic-using-opamp\fuzzy-logic\minimum-function\min.asc

WARNING: Less than two connections to node VCC.  This node is used by V7.
Direct Newton iteration for .op point succeeded.

Date: Fri Feb 25 17:16:26 2022
Total elapsed time: 0.170 seconds.

tnom = 27
temp = 27
method = modified trap
totiter = 2097
traniter = 2088
tranpoints = 1045
accept = 1045
rejected = 0
matrix size = 18
fillins = 1
solver = Normal
Matrix Compiler1: 602 bytes object code size  0.2/0.1/[0.1]
Matrix Compiler2: 1.16 KB object code size  0.1/0.2/[0.1]

