Circuit: * D:\two-ticks\pid-fuzzy-logic-using-opamp\PID\PID.asc

Direct Newton iteration for .op point succeeded.

Date: Sun Feb 27 20:21:09 2022
Total elapsed time: 0.278 seconds.

tnom = 27
temp = 27
method = modified trap
totiter = 2175
traniter = 2172
tranpoints = 1087
accept = 1062
rejected = 25
matrix size = 18
fillins = 17
solver = Normal
Matrix Compiler1: 1.66 KB object code size  0.7/0.5/[0.3]
Matrix Compiler2: 1.84 KB object code size  0.4/0.5/[0.3]

