Circuit: * D:\two-ticks\pid-fuzzy-logic-using-opamp\PID\PID.asc

WARNING: Specified period is not longer than the sum of Trise, Tfall, and Ton for v1.  Increasing period to 80
Limiting rise time of source v1 to 1.56319e-014
Direct Newton iteration for .op point succeeded.

Date: Fri Feb 25 17:00:52 2022
Total elapsed time: 0.250 seconds.

tnom = 27
temp = 27
method = modified trap
totiter = 2165
traniter = 2162
tranpoints = 1082
accept = 1078
rejected = 4
matrix size = 18
fillins = 17
solver = Normal
Matrix Compiler1: 1.66 KB object code size  0.3/0.2/[0.1]
Matrix Compiler2: 1.84 KB object code size  0.1/0.2/[0.1]

