Circuit: * D:\two-ticks\pid-fuzzy-logic-using-opamp\PID\PID.asc

Direct Newton iteration for .op point succeeded.

Date: Sun Oct 10 00:54:52 2021
Total elapsed time: 0.196 seconds.

tnom = 27
temp = 27
method = modified trap
totiter = 2275
traniter = 2272
tranpoints = 1137
accept = 1126
rejected = 11
matrix size = 86
fillins = 100
solver = Normal
Thread vector: 12.8/8.8[5] 4.9/2.9[5] 3.9/2.5[5] 0.4/1.8[1]  2592/500
Matrix Compiler1: 6.64 KB object code size  3.8/2.0/[0.4]
Matrix Compiler2: 9.40 KB object code size  1.6/2.4/[0.3]

